REMARK  13 active torsions:
REMARK  status: ('A' for Active; 'I' for Inactive)
REMARK    1  A    between atoms: P2B_1  and  O2B_16 
REMARK    2  A    between atoms: PA_2  and  O3_24 
REMARK    3  A    between atoms: PA_2  and  O5B_38 
REMARK    4  A    between atoms: PN_3  and  O3_24 
REMARK    5  A    between atoms: PN_3  and  O5D_39 
REMARK    6  A    between atoms: C1B_4  and  N9A_48 
REMARK    7  A    between atoms: C1D_5  and  N1N_7 
REMARK    8  A    between atoms: C2B_12  and  O2B_16 
REMARK    9  A    between atoms: C3N_22  and  C7N_43 
REMARK   10  A    between atoms: C4B_29  and  C5B_35 
REMARK   11  A    between atoms: C4D_30  and  C5D_36 
REMARK   12  A    between atoms: C5B_35  and  O5B_38 
REMARK   13  A    between atoms: C5D_36  and  O5D_39 
ROOT
HETATM    1  PA  NAP A 274      40.981  13.512  24.133  0.62 79.57     0.408 P 
HETATM    2  O1A NAP A 274      41.093  14.284  22.763  0.62 45.62    -0.634 OA
HETATM    3  O2A NAP A 274      42.406  13.158  24.702  0.62 32.76    -0.634 OA
ENDROOT
BRANCH   1   4
HETATM    4  O3  NAP A 274      40.264  14.424  25.173  0.62 83.69    -0.191 OA
BRANCH   4   5
HETATM    5  PN  NAP A 274      39.344  13.786  26.314  0.62 37.78     0.408 P 
HETATM    6  O1N NAP A 274      40.087  12.663  26.969  0.62 18.19    -0.634 OA
HETATM    7  O2N NAP A 274      39.058  14.832  27.337  0.62 37.15    -0.634 OA
BRANCH   5   8
HETATM    8  O5D NAP A 274      37.985  13.291  25.694  0.62 35.44    -0.278 OA
BRANCH   8   9
HETATM    9  C5D NAP A 274      37.317  12.155  26.184  0.62 30.04     0.176 C 
BRANCH   9  10
HETATM   10  C4D NAP A 274      35.828  12.254  26.465  0.62 34.56     0.170 C 
HETATM   11  C3D NAP A 274      34.982  12.930  25.381  0.62 35.96     0.206 C 
HETATM   12  C2D NAP A 274      34.886  14.262  25.852  0.62 35.63     0.224 C 
HETATM   13  O3D NAP A 274      33.668  12.412  25.236  0.62 20.13    -0.228 OA
HETATM   14  C1D NAP A 274      34.655  14.002  27.305  0.62 36.22     0.229 C 
HETATM   15  O2D NAP A 274      33.840  14.956  25.229  0.62 31.01    -0.226 OA
HETATM   16  O4D NAP A 274      35.636  13.004  27.620  0.62 39.40    -0.342 OA
BRANCH  14  17
HETATM   17  N1N NAP A 274      34.713  15.119  28.231  0.62 43.79    -0.311 N 
HETATM   18  C2N NAP A 274      35.856  15.809  28.447  0.62 48.58     0.072 A 
HETATM   19  C3N NAP A 274      35.868  16.871  29.355  0.62 47.69     0.060 A 
HETATM   20  C4N NAP A 274      34.715  17.203  30.045  0.62 43.85    -0.003 A 
HETATM   21  C5N NAP A 274      33.549  16.477  29.809  0.62 40.00     0.009 A 
HETATM   22  C6N NAP A 274      33.592  15.432  28.904  0.62 30.25     0.067 A 
BRANCH  19  23
HETATM   23  C7N NAP A 274      37.178  17.672  29.622  0.62 34.70     0.257 C 
HETATM   24  N7N NAP A 274      38.353  17.234  28.934  0.62 24.54    -0.068 NA
HETATM   25  O7N NAP A 274      37.213  18.631  30.419  0.62 20.12    -0.281 OA
ENDBRANCH  19  23
ENDBRANCH  14  17
ENDBRANCH   9  10
ENDBRANCH   8   9
ENDBRANCH   5   8
ENDBRANCH   4   5
ENDBRANCH   1   4
BRANCH   1  26
HETATM   26  O5B NAP A 274      40.032  12.251  23.960  0.62 70.47    -0.278 OA
BRANCH  26  27
HETATM   27  C5B NAP A 274      39.089  12.145  22.880  0.62 60.55     0.176 C 
BRANCH  27  28
HETATM   28  C4B NAP A 274      39.305  10.975  21.955  0.62 56.07     0.170 C 
HETATM   29  C3B NAP A 274      40.531  11.111  21.114  0.62 59.37     0.203 C 
HETATM   30  C2B NAP A 274      40.060  11.014  19.784  0.62 62.21     0.200 C 
HETATM   31  O3B NAP A 274      41.399  10.071  21.410  0.62 53.63    -0.228 OA
HETATM   32  C1B NAP A 274      38.774  10.261  19.920  0.62 56.68     0.228 C 
HETATM   33  O4B NAP A 274      38.195  10.790  21.058  0.62 54.63    -0.342 OA
BRANCH  30  34
HETATM   34  O2B NAP A 274      40.906  10.300  18.956  0.62 68.45    -0.269 OA
BRANCH  34  35
HETATM   35  P2B NAP A 274      41.787  11.083  17.898  0.62 75.42     0.412 P 
HETATM   36  O1X NAP A 274      40.886  12.019  17.053  0.62 74.12    -0.627 OA
HETATM   37  O2X NAP A 274      42.823  11.902  18.625  0.62 67.53    -0.627 OA
HETATM   38  O3X NAP A 274      42.488  10.094  16.972  0.62 76.55    -0.627 OA
ENDBRANCH  34  35
ENDBRANCH  30  34
BRANCH  32  39
HETATM   39  N9A NAP A 274      37.960  10.402  18.724  0.62 47.75    -0.280 N 
HETATM   40  C4A NAP A 274      37.604   9.401  17.898  0.62 43.71     0.159 A 
HETATM   41  N3A NAP A 274      37.813   8.068  17.893  0.62 44.58    -0.215 NA
HETATM   42  C5A NAP A 274      36.859   9.971  16.876  0.62 41.83     0.138 A 
HETATM   43  C2A NAP A 274      37.302   7.306  16.901  0.62 37.80     0.191 A 
HETATM   44  N1A NAP A 274      36.581   7.848  15.899  0.62 33.13    -0.219 NA
HETATM   45  C6A NAP A 274      36.350   9.169  15.870  0.62 36.37     0.163 A 
HETATM   46  N6A NAP A 274      35.575   9.785  14.817  0.62 40.34    -0.088 NA
HETATM   47  N7A NAP A 274      36.787  11.298  17.093  0.62 48.32    -0.230 NA
HETATM   48  C8A NAP A 274      37.470  11.555  18.225  0.62 53.32     0.171 A 
ENDBRANCH  32  39
ENDBRANCH  27  28
ENDBRANCH  26  27
ENDBRANCH   1  26
TORSDOF 13
