REMARK  6 active torsions:
REMARK  status: ('A' for Active; 'I' for Inactive)
REMARK    1  A    between atoms: C_4  and  O_22 
REMARK    2  A    between atoms: C_6  and  O_21 
REMARK    3  A    between atoms: C_8  and  O_19 
REMARK    4  A    between atoms: C_9  and  C_11 
REMARK    5  A    between atoms: C_14  and  O_18 
REMARK    6  A    between atoms: C_15  and  O_17 
ROOT
HETATM    1  C           1      -1.234   2.131  -0.052  0.00  0.00     0.084 A 
HETATM    2  C           1      -1.765   0.835  -0.084  0.00  0.00     0.096 A 
HETATM    3  C           1      -3.145   0.633  -0.106  0.00  0.00     0.075 A 
HETATM    4  C           1      -4.008   1.729  -0.096  0.00  0.00     0.071 A 
HETATM    5  C           1      -3.490   3.024  -0.064  0.00  0.00     0.074 A 
HETATM    6  C           1      -2.109   3.226  -0.042  0.00  0.00     0.085 A 
HETATM    7  C           1       0.255   2.342  -0.029  0.00  0.00     0.223 A 
HETATM    8  C           1       1.018   1.056  -0.044  0.00  0.00     0.152 A 
HETATM    9  C           1       0.390  -0.124  -0.075  0.00  0.00     0.123 A 
HETATM   10  O           1      -0.974  -0.293  -0.096  0.00  0.00    -0.306 OA
HETATM   11  O           1       0.777   3.431   0.000  0.00  0.00    -0.284 OA
ENDROOT
BRANCH   6  12
HETATM   12  O           1      -1.612   4.486  -0.010  0.00  0.00    -0.360 OA
HETATM   13  H           1      -2.361   5.105  -0.008  0.00  0.00     0.217 HD
ENDBRANCH   6  12
BRANCH   8  14
HETATM   14  O           1       2.372   1.088  -0.026  0.00  0.00    -0.355 OA
HETATM   15  H           1       2.694   0.170  -0.040  0.00  0.00     0.218 HD
ENDBRANCH   8  14
BRANCH   9  16
HETATM   16  C           1       1.148  -1.226  -0.087  0.00  0.00     0.004 A 
HETATM   17  C           1       0.748  -2.340  -0.825  0.00  0.00     0.017 A 
HETATM   18  C           1       1.539  -3.489  -0.837  0.00  0.00     0.040 A 
HETATM   19  C           1       2.730  -3.524  -0.112  0.00  0.00     0.098 A 
HETATM   20  C           1       3.130  -2.409   0.625  0.00  0.00     0.099 A 
HETATM   21  C           1       2.340  -1.260   0.637  0.00  0.00     0.054 A 
BRANCH  19  22
HETATM   22  O           1       3.498  -4.640  -0.124  0.00  0.00    -0.358 OA
HETATM   23  H           1       4.277  -4.474   0.432  0.00  0.00     0.218 HD
ENDBRANCH  19  22
BRANCH  20  24
HETATM   24  O           1       4.288  -2.443   1.329  0.00  0.00    -0.358 OA
HETATM   25  H           1       4.395  -1.584   1.772  0.00  0.00     0.218 HD
ENDBRANCH  20  24
ENDBRANCH   9  16
BRANCH   4  26
HETATM   26  O           1      -5.349   1.536  -0.117  0.00  0.00    -0.361 OA
HETATM   27  H           1      -5.515   0.578  -0.138  0.00  0.00     0.217 HD
ENDBRANCH   4  26
TORSDOF 6
