Fragment
  Chem3D Core 15.108211813253D

  0  0  0     0  0              0 V3000
M  V30 BEGIN CTAB
M  V30 COUNTS 32 34 0 0 0
M  V30 BEGIN ATOM
M  V30 1 C -0.674295 1.898337 -0.228691 0
M  V30 2 C -1.205195 0.602237 -0.260991 0
M  V30 3 C -2.585595 0.400936 -0.282691 0
M  V30 4 C -3.448395 1.496637 -0.272291 0
M  V30 5 C -2.930295 2.791236 -0.240192 0
M  V30 6 C -1.548795 2.993336 -0.218391 0
M  V30 7 C 0.815005 2.109436 -0.205291 0
M  V30 8 C 1.577805 0.823637 -0.220792 0
M  V30 9 C 0.950205 -0.356863 -0.252092 0
M  V30 10 O -0.414595 -0.525864 -0.272891 0
M  V30 11 C 1.708224 -1.458150 -0.264095 0
M  V30 12 C 1.307773 -2.572383 -1.001396 0
M  V30 13 C 2.098567 -3.721358 -1.013797 0
M  V30 14 C 3.289782 -3.755978 -0.289015 0
M  V30 15 C 3.690283 -2.641735 0.448200 0
M  V30 16 C 2.899440 -1.492770 0.460688 0
M  V30 17 O 4.847537 -2.675384 1.152226 0
M  V30 18 O 4.057957 -4.872125 -0.301108 0
M  V30 19 O 2.932320 0.855075 -0.202761 0
M  V30 20 O 1.337279 3.198334 -0.177074 0
M  V30 21 O -1.051704 4.253475 -0.187147 0
M  V30 22 O -4.789408 1.303590 -0.293362 0
M  V30 23 H -2.992883 -0.620571 -0.307969 0
M  V30 24 H -3.611473 3.654909 -0.232031 0
M  V30 25 H 0.368381 -2.545022 -1.573054 0
M  V30 26 H 1.782755 -4.600147 -1.595168 0
M  V30 27 H 3.215220 -0.614011 1.042121 0
M  V30 28 H 4.954722 -1.816840 1.595168 0
M  V30 29 H 4.837295 -4.706429 0.255634 0
M  V30 30 H 3.254261 -0.061956 -0.216670 0
M  V30 31 H -1.801404 4.872125 -0.184625 0
M  V30 32 H -4.954722 0.345980 -0.314298 0
M  V30 END ATOM
M  V30 BEGIN BOND
M  V30 1 1 2 1
M  V30 2 2 1 6
M  V30 3 1 7 1
M  V30 4 2 2 3
M  V30 5 1 10 2
M  V30 6 1 4 3
M  V30 7 1 3 23
M  V30 8 2 5 4
M  V30 9 1 4 22
M  V30 10 1 6 5
M  V30 11 1 5 24
M  V30 12 1 6 21
M  V30 13 1 7 8
M  V30 14 2 7 20
M  V30 15 2 8 9
M  V30 16 1 8 19
M  V30 17 1 9 10
M  V30 18 1 9 11
M  V30 19 1 11 12
M  V30 20 2 11 16
M  V30 21 2 12 13
M  V30 22 1 12 25
M  V30 23 1 13 14
M  V30 24 1 13 26
M  V30 25 2 14 15
M  V30 26 1 14 18
M  V30 27 1 15 16
M  V30 28 1 15 17
M  V30 29 1 16 27
M  V30 30 1 17 28
M  V30 31 1 18 29
M  V30 32 1 19 30
M  V30 33 1 21 31
M  V30 34 1 22 32
M  V30 END BOND
M  V30 END CTAB
M  END
$$$$
